
     RDKit          3D

 31 34  0  0  0  0  0  0  0  0999 V2000
   21.2100   34.3110   32.2490 O   0  0  0  0  0  0  0  0  0  0  0  0
   20.6050   34.4300   33.3490 C   0  0  1  0  0  0  0  0  0  0  0  0
   20.1990   35.7240   33.9610 C   0  0  0  0  0  0  0  0  0  0  0  0
   20.4540   36.8950   33.2820 C   0  0  0  0  0  0  0  0  0  0  0  0
   21.0660   36.8790   32.0250 O   0  0  0  0  0  0  0  0  0  0  0  0
   20.0770   38.1170   33.8440 C   0  0  0  0  0  0  0  0  0  0  0  0
   20.3500   39.2750   33.1210 C   0  0  0  0  0  0  0  0  0  0  0  0
   20.9910   39.2470   31.8780 O   0  0  0  0  0  0  0  0  0  0  0  0
   19.9230   40.5530   33.7270 C   0  0  0  0  0  0  0  0  0  0  0  0
   19.3330   40.5560   34.9850 C   0  0  0  0  0  0  0  0  0  0  0  0
   19.0590   39.4010   35.6790 C   0  0  0  0  0  0  0  0  0  0  0  0
   19.4450   38.1680   35.1270 C   0  0  0  0  0  0  0  0  0  0  0  0
   19.2000   36.9720   35.8160 C   0  0  0  0  0  0  0  0  0  0  0  0
   18.5410   36.9620   37.1850 C   0  0  0  0  0  0  0  0  0  0  0  0
   19.5780   35.7670   35.2290 C   0  0  0  0  0  0  0  0  0  0  0  0
   19.3520   34.4820   35.9890 C   0  0  0  0  0  0  0  0  0  0  0  0
   20.1410   33.1740   34.0100 C   0  0  1  0  0  0  0  0  0  0  0  0
   18.6890   32.7910   33.7120 C   0  0  1  0  0  0  0  0  0  0  0  0
   18.0820   33.3450   32.7890 O   0  0  0  0  0  0  0  0  0  0  0  0
   21.0660   32.1110   33.6320 O   0  0  0  0  0  0  0  0  0  0  0  0
   20.2820   33.3520   35.5120 C   0  0  2  0  0  0  0  0  0  0  0  0
   19.9710   32.0510   36.2970 C   0  0  2  0  0  0  0  0  0  0  0  0
   21.0690   31.2550   36.9320 N   0  0  0  0  0  0  0  0  0  0  0  0
   21.7610   32.0440   38.0030 C   0  0  0  0  0  0  0  0  0  0  0  0
   22.0460   30.7140   35.9550 C   0  0  0  0  0  0  0  0  0  0  0  0
   19.0010   31.1340   35.5370 C   0  0  1  0  0  0  0  0  0  0  0  0
   18.7620   30.0980   36.1000 O   0  0  0  0  0  0  0  0  0  0  0  0
   18.2810   31.5720   34.3850 C   0  0  0  0  0  0  0  0  0  0  0  0
   17.1540   30.7850   33.9070 C   0  0  1  0  0  0  0  0  0  0  0  0
   16.6090   29.8760   34.5910 O   0  0  0  0  0  0  0  0  0  0  0  0
   16.4330   31.2750   32.8920 N   0  0  0  0  0  0  0  0  0  0  0  0
  2  1  1  6
  3  2  1  0
  4  3  1  0
  5  4  1  0
  6  4  1  0
  7  6  1  0
  8  7  1  0
  9  7  1  0
 10  9  1  0
 11 10  1  0
 12  6  1  0
 12 11  1  0
 13 12  1  0
 14 13  1  0
 15 13  1  0
 15  3  1  0
 16 15  1  0
 17  2  1  0
 18 17  1  0
 18 19  1  6
 17 20  1  6
 21 17  1  0
 21 16  1  1
 22 21  1  0
 22 23  1  6
 24 23  1  0
 25 23  1  0
 26 22  1  0
 26 27  1  1
 28 26  1  0
 28 18  1  0
 29 28  1  0
 30 29  1  0
 29 31  1  1
M  END
$$$$
